34

C         12.94429        2.37903        9.23027
C         14.18444        2.30649        9.96846
C         14.17215        2.30115       11.31113
C         12.89324        2.36972       12.04950
C         12.89000        2.36524       13.44894
C         10.44645        2.51279        9.22255
C         11.65115        2.44571        9.92337
C         11.67318        2.43972       11.33712
C         10.45480        2.50493       12.04829
C         10.45894        2.50096       13.46358
C         11.68517        2.43044       14.16613
C         11.67142        2.42721       15.56855
C         10.46720        2.49301       16.26814
C          7.94874        2.64650        9.24572
C          9.24592        2.57598        9.93082
C          9.23222        2.57412       11.34467
C          8.01635        2.64018       12.06461
C          8.02787        2.63679       13.46403
C          9.23689        2.56751       14.17372
C          9.25890        2.56278       15.57603
C          6.71291        2.71510        9.99160
C          6.73320        2.71298       11.33418
H          7.08736        2.68822       14.00826
H          8.33137        2.61346       16.14222
H          5.77920        2.76747        9.44195
H          5.81276        2.76421       11.90515
H         15.11496        2.25731        9.41302
H         15.09589        2.24692       11.87635
H         13.83369        2.31081       13.98734
H         12.60226        2.37334       16.12897
H         10.47041        2.48992       17.35534
H         12.97259        2.38764        8.14741
H         10.44326        2.51580        8.13659
H          7.91403        2.64372        8.16303
